400
Zn32C144H120O104
Zn       5.117468800     -8.916882200      6.271121600
O        5.204370400     -8.987871800      4.318306200
O        4.132583300    -10.452576500      7.007809900
C        3.618519500    -11.454467600      6.429450400
C        2.907785100    -12.449555800      7.303839400
O        3.624896200    -11.687635100      5.185174200
Zn       7.076217200     -9.030099300      3.751707200
O        8.298863600     -8.978918000      5.292384900
C        8.057076000     -8.924060600      6.533828200
C        9.243890700     -8.839871800      7.452732200
O        6.913112700     -8.909876000      7.076042800
Zn       4.303140400    -10.605567400      3.688693000
O        5.502746600    -11.739168300      2.618664600
C        6.732317400    -11.605523300      2.349049500
C        7.376714600    -12.703503200      1.549411700
O        7.479536400    -10.648307100      2.707266300
Zn       4.327216900     -7.416419100      3.564618000
O        7.508173100     -7.482280700      2.612954700
O        2.763731000    -10.156818700      2.546365200
O        4.194844600     -7.287963900      6.882549700
Zn     -11.561586500     -1.379315700      2.674351900
O      -10.634142900      0.236206100      3.280275300
O      -12.241390200     -2.422771900      4.199187300
C      -12.221152100     -2.183962100      5.441733700
C      -12.838943800     -3.217922100      6.341356400
O      -11.710842100     -1.169903100      6.003266200
Zn     -11.508522400      1.808786300      2.515619700
O      -13.026986400      1.320915800      1.367487300
C      -13.509869400      0.183059900      1.091382500
C      -14.671604000      0.155896400      0.137598300
O      -13.095261500     -0.932188400      1.522041200
Zn     -10.710563200      0.336347400      5.231434300
O      -11.555632800      2.005747400      5.839084100
C      -12.074107000      2.952016800      5.176924300
C      -12.608415200      4.116844000      5.962651900
O      -12.165890300      3.023836200      3.916347700
Zn      -8.771394500      0.179289200      2.703787500
O      -10.246020100      2.842828000      1.409014900
O       -8.898749000      0.295403900      6.009151100
O      -10.379843000     -2.557028400      1.632903900
Zn      -0.241477500      1.089743300    -12.011164200
O        0.644272600     -0.476124600    -11.242963000
O        1.002112100      2.173822200    -13.083400400
C        2.224164700      1.990626600    -13.358388300
C        2.877134100      3.004038100    -14.256610300
O        2.944363800      1.024443500    -12.970303600
Zn      -0.253523700     -2.099228300    -11.863788900
O       -1.776343000     -1.682484900    -13.037754400
C       -2.220358700     -0.568270900    -13.442830000
C       -3.445402800     -0.602841600    -14.313562600
O       -1.747119900      0.573124800    -13.167585900
Zn       2.514075800     -0.510358000    -11.816914700
O        2.937593600     -2.158174600    -12.805164600
C        2.204029300     -3.140543500    -13.120993800
C        2.867941100     -4.276142300    -13.848812100
O        0.971410000     -3.270181700    -12.863392400
Zn       0.559756400     -0.385787600     -9.295879100
O       -0.949733200     -3.146406300    -10.348408400
O        3.733197200     -0.429401600    -10.272029900
O       -0.963563900      2.260750200    -10.601600100
Zn       7.173808300      9.348597000      2.989624400
O        5.302415000      9.371897100      3.558502200
O        7.586338900     10.867383600      1.808732400
C        6.860062000     11.826783400      1.415215600
C        7.494732100     12.815515100      0.477323000
O        5.645898500     12.021726500      1.715943800
Zn       5.218512200      9.459743800      5.510662900
O        7.013908200      9.489929800      6.314198400
C        8.157251900      9.462931600      5.771097300
C        9.344617600      9.439116400      6.692850700
O        8.397566500      9.430832100      4.528638800
Zn       4.412157000     10.941169400      2.802919600
O        3.666942800     12.100717600      4.206610800
C        3.701321200     11.990722200      5.467287700
C        3.053999400     13.090326000      6.262178300
O        4.248331700     11.057366600      6.124625300
Zn       4.410553700      7.751605900      2.936867300
O        4.272500800      7.899281300      6.250197100
O        2.916863900     10.414430800      1.634959500
O        7.596951800      7.699384200      1.998660000
Zn      11.000721600     -0.224208800     -5.241890900
O       10.908813100     -0.140244700     -3.289630300
O       11.947279700      1.330574300     -5.988179800
C       12.456317200      2.337212700     -5.413629100
C       13.048134100      3.396930800     -6.300548500
O       12.495126600      2.549665100     -4.166225300
Zn      11.795402000     -1.710457300     -2.531162800
O       12.493798500     -2.897516600     -3.936255600
C       12.441906900     -2.798986600     -5.197337100
C       13.024474700     -3.934743300     -5.991471300
O       11.926674400     -1.848142400     -5.855372000
Zn      11.810066700      1.479591000     -2.664596800
O       13.320475600      1.055674100     -1.477209100
C       13.749733400     -0.059491100     -1.059432900
C       14.890591000     -0.024378000     -0.081137300
O       13.296964900     -1.201084500     -1.366889900
Zn       9.042112200     -0.105165200     -2.723940700
O       10.546508200     -2.775334300     -1.441392600
O       10.580998000      2.631332900     -1.642828700
O        9.199110000     -0.247265800     -6.038855000
Zn      -4.074631100     10.668111800     -3.768564900
O       -4.952742400      9.040526200     -4.406659600
O       -3.381728000     11.746331300     -5.261406400
C       -3.382119400     11.523878600     -6.507620800
C       -2.672098900     12.524931500     -7.375703700
O       -3.901946000     10.528568000     -7.092298500
Zn      -6.829938900      9.056573200     -3.858768800
O       -7.276780600     10.691656900     -2.859725500
C       -6.541201700     11.649688800     -2.480002800
C       -7.187186800     12.705443500     -1.626809000
O       -5.308579000     11.794225800     -2.729484000
Zn      -4.851707500      8.969915000     -6.359029200
O       -6.640501800      8.906998700     -7.177374500
C       -7.788465800      8.891986200     -6.643964500
C       -8.968428700      8.851960700     -7.574600800
O       -8.040395200      8.931520900     -5.403918200
Zn      -4.065075600      7.479058000     -3.644781500
O       -7.241171800      7.526037800     -2.688678200
O       -3.886785900      7.361800800     -6.960340500
O       -2.548911800     10.243566200     -2.597696300
Zn      -2.209104700      0.534173900     11.782436500
O       -0.340174800      0.521085800     11.206792300
O       -2.614152900     -0.983818900     12.967219700
C       -1.884611100     -1.945039000     13.350039400
C       -2.541155500     -3.001695100     14.194057200
O       -0.661261100     -2.115828300     13.072477000
Zn       0.547231300      2.148507100     11.832553400
O       -0.678128400      3.284321000     12.871581300
C       -1.918288600      3.162357700     13.094772000
C       -2.590445400      4.289175000     13.828636700
O       -2.653229300      2.194351000     12.740076600
Zn       0.560051600     -1.040135700     11.966825900
O        2.092557100     -0.519798400     13.084833500
C        2.559180000      0.624184700     13.360833400
C        3.754788200      0.666849100     14.271128400
O        2.102905000      1.736435600     12.964354300
Zn      -0.258976500      0.442198800      9.259285600
O        1.203378700      3.226856500     10.320405600
O        1.252617000     -2.217293000     10.548308100
O       -3.429248300      0.403633200     10.240769600
Zn      -4.191068200    -10.843777100     -2.850871600
O       -5.084703600     -9.274163300     -3.600189500
O       -5.413986200    -11.926241900     -1.754037000
C       -6.631178400    -11.739895700     -1.459404400
C       -7.262258500    -12.731805300     -0.522405400
O       -7.362779500    -10.787038100     -1.858032200
Zn      -5.001950900     -9.358527900     -5.551922400
O       -4.066996900    -10.975367800     -6.173297300
C       -3.501605500    -11.899476200     -5.518608900
C       -2.790160200    -12.958516200     -6.313965600
O       -3.456679300    -12.006799000     -4.257908000
Zn      -6.956514000     -9.258270400     -3.028976500
O       -8.177108800     -9.342262900     -4.570806000
C       -7.938378600     -9.344303000     -5.813852200
C       -9.128153700     -9.308795800     -6.732058200
O       -6.795639300     -9.349907600     -6.359087300
Zn      -4.203447000     -7.650561800     -2.971626800
O       -4.021060000     -7.813672700     -6.280749500
O       -7.387633100     -7.618441200     -2.029966700
O       -2.689533900    -10.311108800     -1.692985400
C        3.741528100      6.901163700      5.679607100
C        3.088718600      5.890226900      6.556912100
C        3.074110300      6.066165100      7.939990900
H        3.542559200      6.941450500      8.361576100
O        3.713665700      6.682090200      4.431786300
C        2.486668500      4.761962100      6.001612300
H        2.500910200      4.633530800      4.930790100
C        1.216591500      2.987827000      9.076626700
C        1.866923400      4.000136300      8.199214400
C        2.467157200      5.129424000      8.754348500
H        2.450876900      5.258518400      9.825100100
O        0.728212500      1.966159300      8.507986500
C        1.881700700      3.824167600      6.816098100
H        1.415095100      2.948120300      6.394158500
O        5.628996600      6.594425200      1.916069000
C        6.861709000      6.727123800      1.654355600
C        7.504483600      5.636966300      0.868759900
C        6.758970400      4.530484300      0.463666500
H        5.714558800      4.477316500      0.727427600
C        8.855394300      5.714719600      0.532776000
H        9.425367300      6.574000500      0.849278000
O        8.607377100      1.537455100     -1.734725000
C        9.347318300      2.505435600     -1.385932100
C        8.705297200      3.596350200     -0.600805300
C        7.354271700      3.518839200     -0.265056100
H        6.783921100      2.659930000     -0.581793900
C        9.450886800      4.702690500     -0.195705600
H       10.495368500      4.755354800     -0.459450900
O        2.890201700      8.159592500      1.758949900
C       -0.943994600     -2.914077900     -9.103392100
C       -1.607331200     -3.917960600     -8.225735200
C       -2.204157700     -5.049169600     -8.780632400
H       -2.177845100     -5.183757600     -9.850461500
O       -0.426336500     -1.907117700     -8.534417300
C       -1.636329500     -3.734421600     -6.843833900
H       -1.172377900     -2.856893300     -6.421839500
C       -3.508862100     -6.806116200     -5.709899600
C       -2.847664400     -5.798529600     -6.585496800
C       -2.818845000     -5.981700800     -7.967289500
H       -3.282422200     -6.859523900     -8.388784100
O       -3.505439700     -6.574994300     -4.463959200
C       -2.251416000     -4.666935200     -6.030641800
H       -2.277469700     -4.532744100     -4.960726800
O       -0.349610600      1.245033100     -8.680109700
C       -0.903318900      2.174750500     -9.339440300
C       -1.543403200      3.267605900     -8.555841600
C       -1.543113300      3.225033100     -7.162263600
H       -1.072452600      2.392543900     -6.663556200
C       -2.147928400      4.340164500     -9.210151500
H       -2.144366300      4.365328300    -10.288468600
O       -3.371072000      6.285002000     -5.043064800
C       -3.382374100      6.402736600     -6.304844000
C       -2.742085100      5.310651700     -7.089139500
C       -2.138865200      4.237335900     -6.434932600
H       -2.144420200      4.210618500     -5.356689000
C       -2.741259100      5.354077600     -8.482738300
H       -3.209508400      6.188205400     -8.981093400
O        2.351235700     -0.389329800     -8.486102100
C       -9.023698700      2.661755600      1.135383300
C       -8.369401600      3.677852600      0.264699000
C       -9.119827000      4.719585300     -0.279434100
H      -10.173595400      4.777496100     -0.056894700
O       -8.306066500      1.694104400      1.532405500
C       -7.005576700      3.598270100     -0.013638500
H       -6.425319600      2.798792600      0.417741600
C       -6.510408600      6.582931700     -2.264365600
C       -7.156571800      5.574087400     -1.379285500
C       -8.518685600      5.659552300     -1.094290100
H       -9.093624600      6.466636600     -1.520313200
O       -5.281071600      6.416086500     -2.522294200
C       -6.404340500      4.536836800     -0.830012600
H       -5.350180500      4.478955800     -1.050670600
O       -8.397232600     -1.481528400      1.735416400
C       -9.143528700     -2.441886700      1.378429000
C       -8.505357400     -3.530366000      0.589293200
C       -7.155047500     -3.447331800      0.253269300
H       -6.582673300     -2.592624800      0.570029700
C       -9.250538100     -4.636766300      0.180824100
H      -10.294831800     -4.693727900      0.445063400
O       -5.424974900     -6.504579500     -1.946940400
C       -6.656887900     -6.643335000     -1.681870300
C       -7.301885700     -5.560420500     -0.889971700
C       -6.558829900     -4.454361100     -0.480576700
H       -5.514924100     -4.389725200     -0.741056700
C       -8.653122800     -5.643921300     -0.552565300
H       -9.221131500     -6.503510600     -0.872158500
O       -7.519518200      0.291017500      4.221528600
C        6.788351000     -6.522683900      2.206835600
C        7.443997200     -5.506933100      1.336979200
C        8.790490800     -5.635751400      0.998539100
H        9.347067900     -6.479263400      1.375480100
O        5.561677000     -6.345465200      2.471495000
C        6.715778800     -4.420092600      0.855040200
H        5.674562200     -4.327714400      1.120793000
C        9.325211000     -2.590802300     -1.160821300
C        8.670290700     -3.606372000     -0.290174400
C        9.398439800     -4.693428400      0.191302000
H       10.439367700     -4.786070300     -0.075719900
O        8.607525800     -1.622427000     -1.551713600
C        7.323868500     -3.477489400      0.048500300
H        6.767183000     -2.633939700     -0.328045900
O        3.623359200     -6.233495500      4.968758200
C        3.663663300     -6.340816100      6.230698300
C        3.025657400     -5.251072600      7.020317000
C        2.421026000     -4.175227200      6.371566300
H        2.424881700     -4.143867900      5.293444700
C        3.027529800     -5.299938600      8.413694900
H        3.497436900     -6.135597100      8.907808700
O        0.636695200     -1.191366300      8.632788000
C        1.190843400     -2.124751900      9.286816800
C        1.828949600     -3.214303500      8.497292900
C        1.826744400     -3.165644000      7.103938200
H        1.356472000     -2.330372200      6.609520200
C        2.434579300     -4.289527300      9.146188500
H        2.432437900     -4.319333000     10.224371200
O        2.808725700     -7.902813300      2.413825700
O        7.813609100     -0.196629400     -4.255998000
O       -2.677730500     -8.054957800     -1.796611400
O       -2.051995300      0.477737500      8.452203300
O       -2.547109000      7.987184000     -2.504433400
C        3.496670600     -0.394799700     -9.028305500
C        4.674100600     -0.356411100     -8.117036700
C        5.967145900     -0.377272400     -8.638140700
H        6.100421000     -0.423044900     -9.707495700
C        4.491279300     -0.297627400     -6.736114600
H        3.488010500     -0.281826800     -6.340649600
C        8.053114700     -0.238024800     -5.499645500
C        6.876204900     -0.279845000     -6.411469000
C        7.059138800     -0.339302700     -7.792331100
H        8.062626700     -0.354873600     -8.187497500
C        5.583127600     -0.259455500     -5.890407000
H        5.449546200     -0.213066700     -4.821176200
C        2.450815500      9.273409100      1.344049700
C        1.276671800      9.236392400      0.428615000
C        0.729556800     10.422234200     -0.059719600
H        1.168951700     11.362106500      0.234952600
C        0.716383100      8.016000600      0.053784500
H        1.145004000      7.103026200      0.436068800
C       -2.094904700      9.130606900     -2.198341700
C       -0.920152100      9.167735400     -1.283753400
C       -0.360342400     10.388160700     -0.908313400
H       -0.790273200     11.301036400     -1.289402700
C       -0.372729800      7.981859000     -0.795634700
H       -0.811518200      7.041709100     -1.090195600
C        2.330582700     -9.041779000      2.130780600
C        1.149577300     -9.072281800      1.224122100
C        0.590070100    -10.291304200      0.843527700
H        1.023297500    -11.205669400      1.216993200
C        0.597101600     -7.884357500      0.747084400
H        1.035576000     -6.945293500      1.046050300
C       -2.230686200     -9.169610200     -1.392804000
C       -1.054365300     -9.134392900     -0.479613100
C       -0.502298900    -10.322010100     -0.001776200
H       -0.939777400    -11.260870900     -0.302379900
C       -0.496252400     -7.915222300     -0.097249600
H       -0.929442700     -7.000861500     -0.470988900
C       -7.754848200      0.311256600      5.467797500
C       -6.576532600      0.354235700      6.378042600
C       -6.756780100      0.308275100      7.760003900
H       -7.758338500      0.248378800      8.155739600
C       -5.285586100      0.438974600      5.858391600
H       -5.149508600      0.487394700      4.790173900
C       -3.195377100      0.432556300      8.996467700
C       -4.373708200      0.410192400      8.085444900
C       -5.664799600      0.336043100      8.606426900
H       -5.796990600      0.299077100      9.676245100
C       -4.193446800      0.464518700      6.704098700
H       -3.192513600      0.526895100      6.307240500
H        3.357088900    -12.484366300      8.290507700
H        2.901910700    -13.432249900      6.845358600
H        1.873473400    -12.126430800      7.420371100
H        7.827794600    -13.414005200      2.241839900
H        8.168274100    -12.306845400      0.922463800
H        6.640251400    -13.232566500      0.954993400
H       13.392073300     -3.585082600     -6.950165100
H       12.234417400     -4.660889800     -6.182183500
H       13.809361300     -4.433376000     -5.433499500
H       13.400261900      2.967310900     -7.232006800
H       13.846712000      3.924458800     -5.790315300
H       12.268416200      4.120152200     -6.538708000
H        7.010450600     13.783036000      0.550422200
H        7.367748900     12.451787100     -0.542148400
H        8.559067500     12.898973800      0.669278900
H        2.248797600     13.549814200      5.699477500
H        3.802812400     13.856355700      6.462771300
H        2.696666000     12.716434800      7.215523500
H       -1.882106200      4.817351200     14.457320900
H       -3.428507400      3.922742100     14.411739000
H       -2.979062700      4.993907100     13.093756400
H       -3.381781000     -2.591191900     14.742530800
H       -1.823302500     -3.456833300     14.867952800
H       -2.918775800     -3.782150700     13.533702400
H        4.347043100      1.556552100     14.087456700
H        4.355836200     -0.229057000     14.158866800
H        3.401590100      0.705266300     15.301425600
H        9.012446100     -9.269455200      8.421332800
H        9.487776900     -7.788300000      7.602728600
H       10.108696600     -9.322702900      7.010865000
H        9.577336500      8.400117400      6.925501900
H        9.118789400      9.945686500      7.624921500
H       10.213721200      9.876835200      6.214092500
H       15.494146000      0.865295000     -0.223605400
H       15.495585700     -0.920908200     -0.162910500
H       14.477092000      0.008126700      0.926713100
H      -14.280702600      0.130834500     -0.879388400
H      -15.272280900      1.053551100      0.238566800
H      -15.274688700     -0.732737000      0.287402200
H      -13.643919600     -3.738298400      5.833722400
H      -13.189506200     -2.767378500      7.263374800
H      -12.075417600     -3.952779800      6.595565400
H       -7.136320000    -12.368708300      0.497418600
H       -6.774327800    -13.697421800     -0.596405900
H       -8.326238400    -12.818999900     -0.714570800
H       -9.982528700     -9.794243100     -6.272813000
H       -8.892068500     -9.762123100     -7.688478200
H       -9.392938300     -8.266681000     -6.909993800
H       -8.712162200      8.347425500     -8.499835600
H       -9.248710100      9.876470200     -7.818696500
H       -9.819219000      8.378075600     -7.097371800
H       -3.473622800      0.257329100    -14.973508900
H       -4.324621400     -0.560960100    -13.670923900
H       -3.490196100     -1.527248400    -14.879079500
H        3.937683700      3.080664600    -14.042372500
H        2.392390300      3.969728600    -14.164448000
H        2.768362700      2.670309800    -15.288372600
H       -3.232891800    -13.065166900     -7.298171100
H       -2.792040500    -13.904468600     -5.783172000
H       -1.752523200    -12.651321900     -6.443459700
H        3.698762900     -3.917279900    -14.446638900
H        2.151906500     -4.812204800    -14.462055200
H        3.264650400     -4.972082700    -13.109869200
H      -11.805703700      4.843492000      6.087427700
H      -12.929452400      3.801688700      6.949481500
H      -13.417284000      4.602893600      5.428028300
H       -7.062238900     12.425447000     -0.581013500
H       -8.250190900     12.770297400     -1.831172800
H       -6.704736700     13.665900600     -1.772788000
H       -2.683085600     13.508375400     -6.918669600
H       -3.108779300     12.553202900     -8.368087100
H       -1.632424300     12.214008900     -7.476929500
