8

S          0.68610       -0.71020       -2.15810
S         -0.37830       -2.07830       -1.07550
S          0.51310       -2.18840        0.76020
S         -0.62290       -1.05710        2.02750
S          0.34010        0.73400        2.23020
S         -0.62300        2.05460        1.00340
S          0.51310        2.21220       -0.68800
S         -0.37830        1.03340       -2.09960
